$DATA1 SOURCE='PrimeSim HSPICE' VERSION='T-2022.06 linux64' PARAM_COUNT=0
.TITLE '* beware!!!! first line is always a comment line and spice ignores this line'
 rise_time        fall_time        rise_delay       fall_delay      
 temper           alter#          
  7.758e-12        6.703e-12        7.362e-12        3.723e-12      
  2.500e+01       1               
