$DATA1 SOURCE='PrimeSim HSPICE' VERSION='T-2022.06 linux64' PARAM_COUNT=0
.TITLE '* beware!!!! first line is always a comment line and spice ignores this line'
 rise_time        fall_time        rise_delay       fall_delay      
 temper           alter#          
  1.675e-11        2.014e-11        1.339e-11        1.348e-11      
  2.500e+01       1               
