$DATA1 SOURCE='PrimeSim HSPICE' VERSION='T-2022.06 linux64' PARAM_COUNT=0
.TITLE '* description ctl file'
 switch_thresh    temper           alter#          
  6.381e-01        2.500e+01       1               
