$DATA1 SOURCE='PrimeSim HSPICE' VERSION='T-2022.06 linux64' PARAM_COUNT=0
.TITLE '* beware!!!! first line is always a comment line and spice ignores this line'
 t                osc_freq         energy           avg_pow         
 temper           alter#          
  7.977e-11        1.254e+10        3.379e-12        8.447e-04      
  2.500e+01       1               
