$DATA1 SOURCE='PrimeSim HSPICE' VERSION='T-2022.06 linux64' PARAM_COUNT=0
.TITLE '* the first line of a control file must be a comment (hspice syntax rules)'
 rise_time        rise_delay       temper           alter#          
  1.382e-09        6.938e-10        2.500e+01       1               
